/*--------------------------------*- C++ -*----------------------------------*\
| =========                 |                                                 |
| \\      /  F ield         | OpenFOAM: The Open Source CFD Toolbox           |
|  \\    /   O peration     | Version:  v2012                                 |
|   \\  /    A nd           | Website:  www.openfoam.com                      |
|    \\/     M anipulation  |                                                 |
\*---------------------------------------------------------------------------*/
FoamFile
{
    version     2.0;
    format      ascii;
    class       dictionary;
    location    "system";
    object      fvSchemes;
}
// * * * * * * * * * * * * * * * * * * * * * * * * * * * * * * * * * * * * * //

ddtSchemes
{
    default         steadyState;
}

gradSchemes
{
    default         Gauss linear;
    grad(p)         Gauss linear;
    grad(U)         cellLimited Gauss linear 1;
	grad(k)         cellLimited Gauss linear 1;
	grad(omega)     cellLimited Gauss linear 1;
}

divSchemes
{
    default         none;

    div(phi,U)      bounded Gauss linearUpwind limited;

    turbulence      bounded Gauss upwind;
    energy          bounded Gauss linearUpwind limited;

    div(phi,k)      $turbulence;
    div(phi,omega)  $turbulence;
	div(phi,epsilon)  $turbulence;

    div(phi,e)      $energy;
    div(phi,K)      $energy;
    div(phi,Ekp)    $energy;

    div(phid,p)     Gauss upwind;
    div((phi|interpolate(rho)),p)  bounded Gauss upwind;
	
	div(phi,nuTilda) bounded Gauss linearUpwind grad(nuTilda);
    div(((rho*nuEff)*dev2(T(grad(U)))))    Gauss linear;
	
	div(phi,R) bounded Gauss upwind;
	div(R) Gauss linear;
}

laplacianSchemes
{
    default         Gauss linear limited corrected 0.33;
}

interpolationSchemes
{
    default         linear;
}

snGradSchemes
{
    default         limited corrected 0.33;
}

wallDist
{
    method meshWave;
}


// ************************************************************************* //
